AlBr3
APtclcactv04151803213D 0   0.00000     0.00000
 
  4  3  0  0  0  0  0  0  0  0999 V2000
   -1.9572    1.1300    0.0003 Br  0  0  0  0  0  0  0  0  0  0  0  0
   -0.0000    0.0000   -0.0028 Al  0  0  0  0  0  0  0  0  0  0  0  0
    1.9572    1.1300    0.0003 Br  0  0  0  0  0  0  0  0  0  0  0  0
    0.0000   -2.2600    0.0003 Br  0  0  0  0  0  0  0  0  0  0  0  0
  1  2  1  0  0  0  0
  2  3  1  0  0  0  0
  2  4  1  0  0  0  0
M  END
$$$$
