BH3
APtclcactv04151800343D 0   0.00000     0.00000
 
  4  3  0  0  0  0  0  0  0  0999 V2000
   -0.0000    0.0000   -0.0004 B   0  0  0  0  0  0  0  0  0  0  0  0
   -1.0132    0.5850    0.0013 H   0  0  0  0  0  0  0  0  0  0  0  0
    1.0132    0.5850    0.0013 H   0  0  0  0  0  0  0  0  0  0  0  0
    0.0000   -1.1700    0.0013 H   0  0  0  0  0  0  0  0  0  0  0  0
  1  2  1  0  0  0  0
  1  3  1  0  0  0  0
  1  4  1  0  0  0  0
M  END
$$$$
