F5I
APtclcactv04151803083D 0   0.00000     0.00000
 
  6  5  0  0  0  0  0  0  0  0999 V2000
   -0.0000    0.0000   -0.1635 I   0  0  0  0  0  0  0  0  0  0  0  0
   -1.3506    1.3505   -0.1635 F   0  0  0  0  0  0  0  0  0  0  0  0
    1.3506   -1.3505   -0.1635 F   0  0  0  0  0  0  0  0  0  0  0  0
    1.3505    1.3506   -0.1635 F   0  0  0  0  0  0  0  0  0  0  0  0
   -1.3505   -1.3506   -0.1635 F   0  0  0  0  0  0  0  0  0  0  0  0
    0.0000   -0.0000    1.7465 F   0  0  0  0  0  0  0  0  0  0  0  0
  1  2  1  0  0  0  0
  1  3  1  0  0  0  0
  1  4  1  0  0  0  0
  1  5  1  0  0  0  0
  1  6  1  0  0  0  0
M  END
$$$$
