Br2Se
APtclcactv04151803243D 0   0.00000     0.00000
 
  3  2  0  0  0  0  0  0  0  0999 V2000
    0.0000   -0.9834   -0.0000 Se  0  0  0  0  0  0  0  0  0  0  0  0
   -1.7825    0.4859    0.0000 Br  0  0  0  0  0  0  0  0  0  0  0  0
    1.7825    0.4859    0.0000 Br  0  0  0  0  0  0  0  0  0  0  0  0
  1  2  1  0  0  0  0
  1  3  1  0  0  0  0
M  END
$$$$
