F4Te
APtclcactv04181812253D 0   0.00000     0.00000
 
  5  4  0  0  0  0  0  0  0  0999 V2000
   -0.0000    0.0000   -0.1848 Te  0  0  0  0  0  0  0  0  0  0  0  0
   -1.9800   -0.0000   -0.1848 F   0  0  0  0  0  0  0  0  0  0  0  0
    1.9800    0.0000   -0.1848 F   0  0  0  0  0  0  0  0  0  0  0  0
    0.0000    1.7147    0.8052 F   0  0  0  0  0  0  0  0  0  0  0  0
    0.0000   -1.7147    0.8052 F   0  0  0  0  0  0  0  0  0  0  0  0
  1  2  1  0  0  0  0
  1  3  1  0  0  0  0
  1  4  1  0  0  0  0
  1  5  1  0  0  0  0
M  END
$$$$
